LTspice 24.0.12 for Windows
Circuit: * C:\Users\Sorin\OneDrive\Desktop\P1_2024_Munteanu_AlessiaGST_N11_LTSpice\DualConstCurrent.asc
Start Time: Tue Jan 21 00:13:01 2025
Number of points reduced from 1000000 to 65535.
solver = Normal
Maximum thread count: 4
tnom = 27
temp = 27
method = modified trap
Direct Newton iteration for .op point succeeded.
Total elapsed time: 1.137 seconds.

